%description:
Tests the correct behaviour and lifetime of vm requests
 - Before you run this, don't forget to include the password in S2F_DB_PASSWORD

%inifile: omnetpp.ini
[General]
network = SimpleDcNetwork
sim-time-limit = 10s
**.netAdapter1.debug = true

# DataCenter settings
*.dc_DataCentre.numBlades = 4
*.dc_DataCentre.manager = 

# SimSchema settings
*.simData.simSchema.typename = "SimSchemaMySQL"
*.simData.simSchema.hostName = "tcp://127.0.0.1:3306"

# Experiment settings
*.simData.manager.experiment = "Test" # This is really unused

# Routing settings
#*.*.ipv4.arp.typename = "GlobalArp"
*.*.ipv4.routingTable.netmaskRoutes = ""

# Wireless settings
*.*.wlan[*].bitrate = 54Mbps

# Using inline XML configuration
*.configurator.dumpConfig = "ips.xml"
*.configurator.config = xml("<config> \
                                <interface hosts='dc_DataCentre.networkAdapter' names='eth0' address='10.0.0.100'/> \
								<interface hosts='**' address='10.x.x.x' netmask='255.x.x.x'/> \
                             </config>")

%# This section does the actual checking of what we expect
%not-contains: stdout
undisposed object:
%not-contains: stdout
-- check module destructor

%#contains: stdout