[General]
## TEMPORAL
print-undisposed=true

## Time resolution
sim-time-limit = 1h
#simtime-resolution = ps

## Comand line environment
cmdenv-express-mode = false
cmdenv-performance-display=false
cmdenv-event-banners=false
#ned-path = ../../src;../;

## Network
network = SimpleFogNetwork

## Log
**.cloudProvider.cmdenv-log-level = off
**.userGenerator.cmdenv-log-level = error
**.dcManager.cmdenv-log-level = error
**.cmdenv-log-level = off	## off, error, info, debug and trace
cmdenv-log-prefix = "(%t):[%l] %m  "

## Allow to examine details of recorded history of a simulation, focusing on the behavior instead of the statistical results.
#record-eventlog = false
#**.module-eventlog-recording = false
eventlog-message-detail-pattern = *:userID,strVmId,isResponse,operation,result

## Recording of simulation results - recordScalar() - recordStatistic()

#**.statistic-recording = false  ## from a @statistic in ned file
#**.scalar-recording = false ## scalar or a statistic object (cStdDev to record summary statistics)
#**.vector-recording = false ## output vector (recorded using cOutVector objects)
#**.bin-recording = false ##  bins of a histogram object (cHistogram, cPSquare, cKSplit)

**.sensor[*].statistic-recording = false
**.actuator[*].statistic-recording = false
**.ap[*].statistic-recording = false

## Random seeds fix
num-rngs = 3
**.metropolitan.ipv4Delayer.rng-0 = 1
**.metropolitan.ipv4Delayer.config = xmldoc("metropolitan.xml")

**.backbone.ipv4Delayer.rng-0 = 2
**.backbone.ipv4Delayer.config = xmldoc("backbone.xml")

# SimSchema settings
*.simData.simSchema.typename = "SimSchemaMySQL"
*.simData.simSchema.hostName = "tcp://127.0.0.1:3306"
*.simData.manager.experiment = "Test"

# Routing settings
**.ipv4.arp.typename = "GlobalArp"
*.*.ipv4.routingTable.netmaskRoutes = ""

*.dc.numBlades = 4

# Blades settings
*.dc.blade[*].staticAppAssignment = false
*.dc.blade[*].isVirtualHardware = true
*.dc.blade[*].maxUsers = 24
*.dc.blade[*].maxVMs = 24
*.dc.blade[*].numCpuCores = 24
*.dc.blade[*].memorySize = 256GB
*.dc.blade[*].diskSize = 500GB
*.dc.blade[*].diskReadBandwidth = 500Mbps
*.dc.blade[*].diskWriteBandwidth = 500Mbps
*.dc.blade[*].cpu.cpuCore[*].speed = 60000
*.dc.blade[*].cpu.cpuCore[*].tick = 60s

*.fg.numBlades = 4

# Blades settings
*.fg.blade[*].staticAppAssignment = false
*.fg.blade[*].isVirtualHardware = true
*.fg.blade[*].maxUsers = 24
*.fg.blade[*].maxVMs = 24
*.fg.blade[*].numCpuCores = 24
*.fg.blade[*].memorySize = 256GB
*.fg.blade[*].diskSize = 500GB
*.fg.blade[*].diskReadBandwidth = 500Mbps
*.fg.blade[*].diskWriteBandwidth = 500Mbps
*.fg.blade[*].cpu.cpuCore[*].speed = 60000
*.fg.blade[*].cpu.cpuCore[*].tick = 60s

## Config Ip assignment
*.configurator.config = xml("<config> \
	<interface hosts='*.dns' address='10.0.0.1'/> \
	<interface hosts='**' address='10.x.x.x' netmask='255.x.x.x'/> \
</config>")
*.configurator.dumpConfig = "ips.xml"

*.tile*.sensors = 2
*.tile*.actuators = 1
*.tile*.controller*.hy.apps = "SmartHomeAppEndToEnd"
*.tile*.controller*.ns.dns = "10.0.0.1"

**.dc.**.enableQueue = false
**.dc.**.hasCloudEvents = false
**.dc.serviceDeployed = "service"

**.fg.**.enableQueue = false
**.fg.**.hasCloudEvents = false
**.fg.serviceDeployed = "service2"

**.dc.stack.numApps = 1
**.dc.stack.app[0].typename = "TcpGenericServerApp"
**.dc.stack.app[0].replyDelay = 0s
**.dc.stack.app[0].localPort = 443

**.fg.stack.numApps = 1
**.fg.stack.app[0].typename = "TcpGenericServerApp"
**.fg.stack.app[0].replyDelay = 0s
**.fg.stack.app[0].localPort = 443

[Config targetDc]
repeat=30
**.tile*.serviceName = "service"

[Config targetFog]
repeat=30
**.tile*.serviceName = "service2"
