%description:

Tests the ability of the NetworkStack to provide different services

%inifile: omnetpp.ini

[General]
network = SimpleNetworkScenario
sim-time-limit = 30s
record-eventlog = true
**.ns1.**.cmdenv-log-level = off
**.ns2.**.cmdenv-log-level = off
**.router.**.cmdenv-log-level = off
#**.ns1.app[*].cmdenv-log-level = trace
#**.ns2.app[*].cmdenv-log-level = trace

SimpleNetworkScenario.serverAddress = "10.10.10.10"

# *.configurator.dumpConfig = "ips.xml" Will be necessary for DNS
*.configurator.config = xml("<config> \
                                <interface hosts='*.ns2' address='10.10.10.10'/> \
                                <interface hosts='**' address='10.0.0.x' netmask='255.255.255.x'/> \
                             </config>")


%# This section does the actual checking of what we expect
%not-contains: stdout
undisposed object:
%not-contains: stdout
-- check module destructor