[General]
## TEMPORAL
print-undisposed=true

## Time resolution
sim-time-limit = 1h
simtime-resolution = ps

## Comand line environment
cmdenv-express-mode = false
cmdenv-performance-display=false
cmdenv-event-banners=false
#ned-path = ../../src;../;

## Network
network = EdgeNetwork

## Log
**.cloudProvider.cmdenv-log-level = off
**.userGenerator.cmdenv-log-level = error
**.dcManager.cmdenv-log-level = error
**.cmdenv-log-level = off	## off, error, info, debug and trace
cmdenv-log-prefix = "(%t):[%l] %m  "

## Allow to examine details of recorded history of a simulation, focusing on the behavior instead of the statistical results.
#record-eventlog = false
#**.module-eventlog-recording = false
eventlog-message-detail-pattern = *:userID,strVmId,isResponse,operation,result

## Recording of simulation results - recordScalar() - recordStatistic()
#**.statistic-recording = false  ## from a @statistic in ned file
#**.scalar-recording = false ## scalar or a statistic object (cStdDev to record summary statistics)
#**.vector-recording = false ## output vector (recorded using cOutVector objects)
#**.bin-recording = false ##  bins of a histogram object (cHistogram, cPSquare, cKSplit)

## Random seeds fix
seed-set = 0
num-rngs = 1
seed-0-mt = 0

# network = INETComm

# SimSchema settings
*.simData.simSchema.typename = "SimSchemaMySQL"
*.simData.simSchema.hostName = "tcp://127.0.0.1:3306"

# Experiment settings
*.simData.manager.experiment = "Test"

# Routing settings
*.*.ipv4.arp.typename = "GlobalArp"
*.*.ipv4.routingTable.netmaskRoutes = ""

# Wireless settings
*.*.wlan[*].bitrate = 54Mbps
*.edgeTiles = 1

## Tile settings
*.tile[*].sensors = 2
*.tile[*].actuators = 2

# Actuator settings
*.tile[*].actuator*.numApps = 1
*.tile[*].actuator*.app[0].typename = "UdpSink"
*.tile[*].actuator*.app[0].localPort = 1000

# Controller preloading app
*.tile[*].controller*.hy.apps = "SmartHomeApp"
*.tile[*].controller*.ns.enableQueue = false

## Config Ip assignment
*.configurator.config = xml("<config> \
	<interface hosts='*.tile[*].**' address='10.0.x.x' netmask='255.255.x.x'/> \
	<interface among='**.router*' address='10.x.x.x' netmask='255.x.x.x'/> \
	<interface hosts='**' address='10.x.x.x' netmask='255.x.x.x'/> \
</config>")

#*.configurator.dumpConfig = 'ips.xml"

[Config experiment]
seed-set= ${R=5,6,8,11}
*.tile[*].sensors = ${S=1..20 step 5}
*.tile[*].actuators = ${A=1..20 step 5 ! S}

